18
	Energy:       3.6629917
C         -5.46616        2.01842       -0.09263
C         -3.94218        1.89083       -0.02042
H         -5.84537        2.70010        0.67636
H         -5.94552        1.04425        0.05086
H         -5.77890        2.40190       -1.06969
C         -3.53226        1.30257        1.34421
C         -3.29762        3.25255       -0.28296
H         -3.62878        1.20380       -0.81619
H         -3.84877        1.97460        2.15128
C         -2.04012        1.02047        1.49123
H         -4.07218        0.35693        1.48361
O         -1.61358        0.11758        0.48191
H         -1.44803        1.93746        1.42166
H         -1.84512        0.56216        2.46630
H         -3.53416        3.96432        0.51517
H         -3.65481        3.67498       -1.22847
H         -2.20907        3.17077       -0.35644
H         -0.66373       -0.03740        0.61995
