21
	Energy:      10.3495491
C         -7.60810        2.91769       -0.10534
C         -6.05328        2.84896       -0.05918
C         -8.13254        4.34515        0.09905
C         -8.26202        2.00687        0.94184
H         -7.94463        2.58009       -1.09457
H         -5.71154        3.18676        0.92883
C         -5.40998        3.78796       -1.09333
C         -5.53312        1.41529       -0.26906
H         -5.91883        0.73569        0.49509
O         -4.11361        1.38584       -0.16902
H         -5.82006        1.03633       -1.25574
H         -3.83646        0.46526       -0.31493
H         -7.74886        4.77834        1.02886
H         -9.22707        4.35674        0.14766
H         -7.84865        4.99965       -0.73028
H         -5.63831        4.83613       -0.87866
H         -5.76219        3.55890       -2.10472
H         -4.31836        3.70323       -1.08897
H         -7.88236        2.22228        1.94623
H         -8.08261        0.95019        0.72346
H         -9.34906        2.14353        0.95538
