18
	Energy:       6.8952606
C         -5.52122        2.09696       -0.15944
C         -4.00294        1.97677       -0.00923
H         -5.95692        2.68663        0.65432
H         -5.99110        1.10781       -0.15152
H         -5.78223        2.58076       -1.10682
C         -3.65279        1.30334        1.33241
C         -3.36866        3.36706       -0.11842
H         -3.63060        1.35571       -0.83349
H         -3.82184        2.02612        2.14044
C         -2.20497        0.81533        1.39806
H         -4.33176        0.46009        1.51006
O         -2.15566       -0.59699        1.22227
H         -1.56008        1.27384        0.64343
H         -1.78023        1.03279        2.38239
H         -3.71606        4.02438        0.68666
H         -3.62979        3.83919       -1.07158
H         -2.27725        3.31780       -0.06377
H         -2.58935       -0.80603        0.37998
