21
	Energy:      10.3495219
C         -7.64166        2.88862       -0.00420
C         -6.08524        2.84697       -0.01631
C         -8.18328        4.31748        0.13538
C         -8.23775        2.03265        1.12087
H         -8.01042        2.48670       -0.95722
H         -5.71130        3.24875        0.93543
C         -5.49966        3.73206       -1.12928
C         -5.54815        1.41152       -0.16133
H         -5.89127        0.77323        0.65684
O         -4.12551        1.41011       -0.11711
H         -5.86689        0.96948       -1.11132
H         -3.83790        0.48688       -0.21945
H         -7.77137        4.81201        1.02148
H         -9.27509        4.31492        0.22708
H         -7.94384        4.92499       -0.74232
H         -5.73830        4.78754       -0.96838
H         -5.88674        3.43712       -2.11041
H         -4.40735        3.66485       -1.16343
H         -7.82328        2.31438        2.09461
H         -8.04787        0.96764        0.95914
H         -9.32574        2.15276        1.16958
