18
	Energy:       0.3312733
C         -5.47646        2.04445       -0.16347
C         -3.95041        2.04540       -0.04616
H         -5.93968        2.58327        0.67022
H         -5.86638        1.02107       -0.16463
H         -5.79582        2.52284       -1.09547
C         -3.52557        1.32052        1.24270
C         -3.42824        3.48155       -0.10666
H         -3.54692        1.49750       -0.90722
H         -3.91167        1.85391        2.12005
C         -2.01862        1.15889        1.38292
H         -3.97852        0.32130        1.25738
O         -1.52141        2.12417        1.51501
H         -1.59241        0.66488        0.50416
H         -1.78762        0.54677        2.26078
H         -3.74817        4.05762        0.76819
H         -3.79980        3.99237       -1.00164
H         -2.33521        3.50615       -0.15081
H         -1.70780        2.69119        0.75039
