13
	Energy:      20.1500319
C         -1.73000       -2.23957        4.07425
C         -1.98584       -3.63057        4.64179
H         -2.75027       -4.16401        4.06658
H         -2.35982       -3.55846        5.66879
H         -1.07028       -4.22980        4.64502
O         -2.28548       -2.75428        1.76413
O         -2.93780       -1.47476        4.14326
H         -3.65584       -2.05352        3.83049
C         -1.24711       -2.28091        2.62192
H         -2.92010       -2.01882        1.68701
H         -0.37867       -2.93745        2.51231
H         -0.96902       -1.27851        2.27937
H         -0.98015       -1.73176        4.68975
