7
Energy 0
H         0.33535         0.7797         1.2384
C         1.2688         -1.3753         0.3015
C         0.0875         -0.7408         0.4257
C         0.9011         1.4908         -0.2590
C         -1.1123         -0.8581         -0.9832
C         0.6990         0.8311         -0.2112
C         -1.8772         0.5839         0.6247
